/*--------------------------------*- C++ -*----------------------------------*\
  =========                 |
  \\      /  F ield         | OpenFOAM: The Open Source CFD Toolbox
   \\    /   O peration     | Website:  https://openfoam.org
    \\  /    A nd           | Version:  dev
     \\/     M anipulation  |
\*---------------------------------------------------------------------------*/
FoamFile
{
    version     2.0;
    format      ascii;
    class       dictionary;
    object      blockMeshDict;
}
// * * * * * * * * * * * * * * * * * * * * * * * * * * * * * * * * * * * * * //

convertToMeters 1;

vertices
(
    (-15 -20 0.45)
    (25 -20 0.45)
    (25 20 0.45)
    (-15 20 0.45)
    (-15 -20 0.55)
    (25 -20 0.55)
    (25 20 0.55)
    (-15 20 0.55)
);

blocks
(
    hex (0 1 2 3 4 5 6 7) (200 200 1) simpleGrading (1 1 1)
);

edges
(
);

boundary
(
    back
    {
        type patch;
        faces
        (
            (0 3 2 1)
        );
    }
    
    front
    {
        type patch;
        faces
        (
            (4 5 6 7)
        );
    }
    
    freeStream
    {
        type patch;
        faces
        (
            (3 7 6 2)
            (1 5 4 0)
        );
    }
    inlet
    {
        type patch;
        faces
        (
            (0 4 7 3)
        );
    }
    outlet
    {
        type patch;
        faces
        (
            (2 6 5 1)
        );
    }
);

mergePatchPairs
(
);

// ************************************************************************* //
